---- qbsp / ericw-tools v0.18.1 ----
Input file: aquaticarchmark2.map
Output file: aquaticarchmark2.bsp

---- LoadMapFile ----
         1268 faces
          199 brushes
          310 entities
           31 unique texnames
          245 texinfo

Opened WAD: C:/Users/Ryan/Documents/QuakeLevelDesign/quake-leveldesign-starterkit-master/wads/id1.wad
Opened WAD: C:/Users/Ryan/Documents/QuakeLevelDesign/quake-leveldesign-starterkit-master/wads/hipnotic.wad
Opened WAD: C:/Users/Ryan/Documents/QuakeLevelDesign/quake-leveldesign-starterkit-master/wads/rogue.wad
Processing hull 0...
---- Brush_LoadEntity ----
          199 brushes
          513 planes
---- CSGFaces ----
         1268 brushfaces
         1845 csgfaces
         1484 mergedfaces
---- SolidBSP ----
         2231 split nodes
          822 solid leafs
         1410 empty leafs
            0 water leafs
            0 detail leafs
            0 detail illusionary leafs
            0 detail fence leafs
            0 illusionary visblocker leafs
         5112 leaffaces
         4595 nodefaces
---- Portalize ----
         1410 vis leafs
         1410 vis clusters
         3673 vis portals
---- FillOutside ----
*** WARNING 10: Reached occupant at (528 -1376 64), no filling performed.
Leak file written to aquaticarchmark2.pts
---- MakeFaceEdges ----
---- GrowRegions ----
Processing hull 1...
Processing hull 2...
*** WARNING 16: Texture 128_honey_2 not found
*** WARNING 16: Texture 128_grey_1 not found
---- WriteBSPFile ----
Wrote aquaticarchmark2.bsp
         1303 planes            26060
         5812 vertexes          69744
         2231 nodes             53544
          217 texinfo            8680
         4595 faces             91900
         2581 clipnodes         20648
         1411 leafs             39508
         5112 marksurfaces      10224
        18217 surfedges         72868
        12147 edges             48588
           31 textures         235208
              lightdata             0
              visdata               0
              entdata           16056

0.430 seconds elapsed
Peak memory usage: 22837040 (21.8M)
