---- qbsp / ericw-tools v0.18.1 ----
Input file: aquaticarch.map
Output file: aquaticarch.bsp

---- LoadMapFile ----
          786 faces
          127 brushes
           16 entities
            9 unique texnames
           39 texinfo

Opened WAD: C:/Users/Ryan/Documents/QuakeLevelDesign/quake-leveldesign-starterkit-master/wads/prototype_1_2.wad
Processing hull 0...
---- Brush_LoadEntity ----
          127 brushes
          268 planes
---- CSGFaces ----
          786 brushfaces
          918 csgfaces
          766 mergedfaces
---- SolidBSP ----
         1046 split nodes
          301 solid leafs
          640 empty leafs
          106 water leafs
            0 detail leafs
            0 detail illusionary leafs
            0 detail fence leafs
            0 illusionary visblocker leafs
         3153 leaffaces
         2948 nodefaces
---- Portalize ----
          746 vis leafs
          746 vis clusters
         2061 vis portals
---- FillOutside ----
*** WARNING 10: Reached occupant at (-536 -192 360), no filling performed.
Leak file written to aquaticarch.pts
---- MakeFaceEdges ----
---- GrowRegions ----
Processing hull 1...
*** WARNING 19: No entities in empty space -- no filling performed (hull 1)
Processing hull 2...
*** WARNING 19: No entities in empty space -- no filling performed (hull 2)
---- WriteBSPFile ----
Wrote aquaticarch.bsp
          675 planes            13500
         3211 vertexes          38532
         1046 nodes             25104
           37 texinfo            1480
         2948 faces             58960
         2109 clipnodes         16872
          747 leafs             20916
         3153 marksurfaces       6306
        11735 surfedges         46940
         7693 edges             30772
            9 textures         163600
              lightdata             0
              visdata               0
              entdata            1051

0.223 seconds elapsed
Peak memory usage: 13279406 (12.7M)
