---- qbsp / ericw-tools v0.18.1 ----
Input file: firstmap.map
Output file: firstmap.bsp

---- LoadMapFile ----
*** WARNING 06: No info_player_deathmatch entities in level
           52 faces
            9 brushes
            8 entities
            2 unique texnames
           16 texinfo

*** WARNING 01: No valid WAD filenames in worldmodel
Processing hull 0...
---- Brush_LoadEntity ----
            9 brushes
           26 planes
---- CSGFaces ----
           52 brushfaces
           72 csgfaces
           60 mergedfaces
---- SolidBSP ----
           99 split nodes
           33 solid leafs
           67 empty leafs
            0 water leafs
            0 detail leafs
            0 detail illusionary leafs
            0 detail fence leafs
            0 illusionary visblocker leafs
          160 leaffaces
          148 nodefaces
---- Portalize ----
           67 vis leafs
           67 vis clusters
          152 vis portals
---- FillOutside ----
*** WARNING 10: Reached occupant at (16 0 72), no filling performed.
Leak file written to firstmap.pts
---- MakeFaceEdges ----
---- GrowRegions ----
Processing hull 1...
*** WARNING 19: No entities in empty space -- no filling performed (hull 1)
Processing hull 2...
*** WARNING 19: No entities in empty space -- no filling performed (hull 2)
*** WARNING 16: Texture +0butn not found
*** WARNING 16: Texture +0light01 not found
---- WriteBSPFile ----
Wrote firstmap.bsp
           62 planes             1240
          178 vertexes           2136
           99 nodes              2376
           13 texinfo             520
          148 faces              2960
          173 clipnodes          1384
           68 leafs              1904
          160 marksurfaces        320
          588 surfedges          2352
          372 edges              1488
            2 textures             12
              lightdata             0
              visdata               0
              entdata             591

0.057 seconds elapsed
Peak memory usage: 818464 (0.8M)
